scripts/ieee_123bus_1ph_copy.dss
Clear
New Circuit.network basekv=1.2 pu=1.0 phases=1
Edit Vsource.Source bus1=bus0.1 phases=1 basekv=1.2 pu=1.0
New Line.L_0_1 phases=1 bus1=bus0.1 bus2=bus1.1 r1=1e-06 x1=1e-06 length=1 units=km
New Line.L_1_2 phases=1 bus1=bus1.1 bus2=bus2.1 r1=0.0232 x1=0.0475 length=1 units=km
New Line.L_2_3 phases=1 bus1=bus2.1 bus2=bus3.1 r1=0.0441 x1=0.0447 length=1 units=km
New Line.L_2_4 phases=1 bus1=bus2.1 bus2=bus4.1 r1=0.0629 x1=0.0638 length=1 units=km
New Line.L_2_5 phases=1 bus1=bus2.1 bus2=bus5.1 r1=0.0174 x1=0.0356 length=1 units=km
New Line.L_4_6 phases=1 bus1=bus4.1 bus2=bus6.1 r1=0.0503 x1=0.051 length=1 units=km
New Line.L_4_7 phases=1 bus1=bus4.1 bus2=bus7.1 r1=0.0818 x1=0.0829 length=1 units=km
New Line.L_7_8 phases=1 bus1=bus7.1 bus2=bus8.1 r1=0.0629 x1=0.0638 length=1 units=km
New Line.L_5_9 phases=1 bus1=bus5.1 bus2=bus9.1 r1=0.0116 x1=0.0238 length=1 units=km
New Line.L_9_10 phases=1 bus1=bus9.1 bus2=bus10.1 r1=0.0566 x1=0.0574 length=1 units=km
New Line.L_9_11 phases=1 bus1=bus9.1 bus2=bus11.1 r1=0.0566 x1=0.0574 length=1 units=km
New Line.L_9_12 phases=1 bus1=bus9.1 bus2=bus12.1 r1=0.0174 x1=0.0356 length=1 units=km
New Line.L_11_13 phases=1 bus1=bus11.1 bus2=bus13.1 r1=1e-06 x1=1e-06 length=1 units=km
New Line.L_13_14 phases=1 bus1=bus13.1 bus2=bus14.1 r1=1e-06 x1=1e-06 length=1 units=km
New Line.L_12_15 phases=1 bus1=bus12.1 bus2=bus15.1 r1=0.0378 x1=0.0383 length=1 units=km
New Line.L_12_16 phases=1 bus1=bus12.1 bus2=bus16.1 r1=0.0478 x1=0.098 length=1 units=km
New Line.L_14_17 phases=1 bus1=bus14.1 bus2=bus17.1 r1=0.0629 x1=0.0638 length=1 units=km
New Line.L_14_18 phases=1 bus1=bus14.1 bus2=bus18.1 r1=0.0629 x1=0.0638 length=1 units=km
New Line.L_19_20 phases=1 bus1=bus19.1 bus2=bus20.1 r1=0.0944 x1=0.0957 length=1 units=km
New Line.L_19_21 phases=1 bus1=bus19.1 bus2=bus21.1 r1=0.0881 x1=0.0893 length=1 units=km
New Line.L_16_22 phases=1 bus1=bus16.1 bus2=bus22.1 r1=0.0629 x1=0.0638 length=1 units=km
New Line.L_16_23 phases=1 bus1=bus16.1 bus2=bus23.1 r1=0.0174 x1=0.0356 length=1 units=km
New Line.L_22_24 phases=1 bus1=bus22.1 bus2=bus24.1 r1=0.0818 x1=0.0829 length=1 units=km
New Line.L_23_25 phases=1 bus1=bus23.1 bus2=bus25.1 r1=0.1322 x1=0.134 length=1 units=km
New Line.L_23_26 phases=1 bus1=bus23.1 bus2=bus26.1 r1=0.0145 x1=0.0297 length=1 units=km
New Line.L_26_27 phases=1 bus1=bus26.1 bus2=bus27.1 r1=0.1385 x1=0.1404 length=1 units=km
New Line.L_26_28 phases=1 bus1=bus26.1 bus2=bus28.1 r1=0.0159 x1=0.0327 length=1 units=km
New Line.L_28_29 phases=1 bus1=bus28.1 bus2=bus29.1 r1=1e-06 x1=1e-06 length=1 units=km
New Line.L_29_30 phases=1 bus1=bus29.1 bus2=bus30.1 r1=0.0203 x1=0.0455 length=1 units=km
New Line.L_28_31 phases=1 bus1=bus28.1 bus2=bus31.1 r1=0.0116 x1=0.0238 length=1 units=km
New Line.L_30_32 phases=1 bus1=bus30.1 bus2=bus32.1 r1=0.0159 x1=0.0358 length=1 units=km
New Line.L_30_33 phases=1 bus1=bus30.1 bus2=bus33.1 r1=0.0566 x1=0.0574 length=1 units=km
New Line.L_32_34 phases=1 bus1=bus32.1 bus2=bus34.1 r1=0.1259 x1=0.1276 length=1 units=km
New Line.L_31_35 phases=1 bus1=bus31.1 bus2=bus35.1 r1=0.0174 x1=0.0356 length=1 units=km
New Line.L_35_36 phases=1 bus1=bus35.1 bus2=bus36.1 r1=0.0203 x1=0.0416 length=1 units=km
New Line.L_36_37 phases=1 bus1=bus36.1 bus2=bus37.1 r1=0.0116 x1=0.0238 length=1 units=km
New Line.L_33_38 phases=1 bus1=bus33.1 bus2=bus38.1 r1=0.0755 x1=0.0766 length=1 units=km
New Line.L_15_19 phases=1 bus1=bus15.1 bus2=bus19.1 r1=0.0252 x1=0.0255 length=1 units=km
New Line.L_39_40 phases=1 bus1=bus39.1 bus2=bus40.1 r1=0.0377 x1=0.0845 length=1 units=km
New Line.L_39_41 phases=1 bus1=bus39.1 bus2=bus41.1 r1=0.0145 x1=0.0297 length=1 units=km
New Line.L_40_42 phases=1 bus1=bus40.1 bus2=bus42.1 r1=0.0755 x1=0.0766 length=1 units=km
New Line.L_40_43 phases=1 bus1=bus40.1 bus2=bus43.1 r1=0.0629 x1=0.0638 length=1 units=km
New Line.L_43_44 phases=1 bus1=bus43.1 bus2=bus44.1 r1=0.0818 x1=0.0829 length=1 units=km
New Line.L_41_45 phases=1 bus1=bus41.1 bus2=bus45.1 r1=0.0818 x1=0.0829 length=1 units=km
New Line.L_41_46 phases=1 bus1=bus41.1 bus2=bus46.1 r1=0.0145 x1=0.0297 length=1 units=km
New Line.L_46_47 phases=1 bus1=bus46.1 bus2=bus47.1 r1=0.1259 x1=0.1276 length=1 units=km
New Line.L_46_48 phases=1 bus1=bus46.1 bus2=bus48.1 r1=0.0116 x1=0.0238 length=1 units=km
New Line.L_48_49 phases=1 bus1=bus48.1 bus2=bus49.1 r1=0.0503 x1=0.051 length=1 units=km
New Line.L_48_50 phases=1 bus1=bus48.1 bus2=bus50.1 r1=0.0145 x1=0.0297 length=1 units=km
New Line.L_49_51 phases=1 bus1=bus49.1 bus2=bus51.1 r1=0.0755 x1=0.0766 length=1 units=km
New Line.L_50_52 phases=1 bus1=bus50.1 bus2=bus52.1 r1=0.0087 x1=0.0178 length=1 units=km
New Line.L_50_53 phases=1 bus1=bus50.1 bus2=bus53.1 r1=0.0145 x1=0.0297 length=1 units=km
New Line.L_53_54 phases=1 bus1=bus53.1 bus2=bus54.1 r1=0.0145 x1=0.0297 length=1 units=km
New Line.L_54_55 phases=1 bus1=bus54.1 bus2=bus55.1 r1=0.0145 x1=0.0297 length=1 units=km
New Line.L_56_57 phases=1 bus1=bus56.1 bus2=bus57.1 r1=0.0116 x1=0.0238 length=1 units=km
New Line.L_57_58 phases=1 bus1=bus57.1 bus2=bus58.1 r1=0.0072 x1=0.0148 length=1 units=km
New Line.L_58_59 phases=1 bus1=bus58.1 bus2=bus59.1 r1=0.0159 x1=0.0327 length=1 units=km
New Line.L_58_60 phases=1 bus1=bus58.1 bus2=bus60.1 r1=0.0203 x1=0.0416 length=1 units=km
New Line.L_59_61 phases=1 bus1=bus59.1 bus2=bus61.1 r1=0.0159 x1=0.0327 length=1 units=km
New Line.L_60_62 phases=1 bus1=bus60.1 bus2=bus62.1 r1=0.0629 x1=0.0638 length=1 units=km
New Line.L_60_63 phases=1 bus1=bus60.1 bus2=bus63.1 r1=0.0435 x1=0.0891 length=1 units=km
New Line.L_62_64 phases=1 bus1=bus62.1 bus2=bus64.1 r1=0.0629 x1=0.0638 length=1 units=km
New Line.L_63_65 phases=1 bus1=bus63.1 bus2=bus65.1 r1=0.0319 x1=0.0653 length=1 units=km
New Line.L_63_66 phases=1 bus1=bus63.1 bus2=bus66.1 r1=0.048 x1=0.0229 length=1 units=km
New Line.L_66_67 phases=1 bus1=bus66.1 bus2=bus67.1 r1=0.0336 x1=0.016 length=1 units=km
New Line.L_67_68 phases=1 bus1=bus67.1 bus2=bus68.1 r1=0.0672 x1=0.032 length=1 units=km
New Line.L_68_69 phases=1 bus1=bus68.1 bus2=bus69.1 r1=0.0816 x1=0.0389 length=1 units=km
New Line.L_69_70 phases=1 bus1=bus69.1 bus2=bus70.1 r1=0.0624 x1=0.0297 length=1 units=km
New Line.L_71_72 phases=1 bus1=bus71.1 bus2=bus72.1 r1=0.0503 x1=0.051 length=1 units=km
New Line.L_71_73 phases=1 bus1=bus71.1 bus2=bus73.1 r1=0.0159 x1=0.0327 length=1 units=km
New Line.L_71_74 phases=1 bus1=bus71.1 bus2=bus74.1 r1=0.0145 x1=0.0297 length=1 units=km
New Line.L_72_75 phases=1 bus1=bus72.1 bus2=bus75.1 r1=0.0692 x1=0.0702 length=1 units=km
New Line.L_75_76 phases=1 bus1=bus75.1 bus2=bus76.1 r1=0.0818 x1=0.0829 length=1 units=km
New Line.L_76_77 phases=1 bus1=bus76.1 bus2=bus77.1 r1=0.0692 x1=0.0702 length=1 units=km
New Line.L_73_78 phases=1 bus1=bus73.1 bus2=bus78.1 r1=0.0692 x1=0.0702 length=1 units=km
New Line.L_73_79 phases=1 bus1=bus73.1 bus2=bus79.1 r1=0.0116 x1=0.0238 length=1 units=km
New Line.L_78_80 phases=1 bus1=bus78.1 bus2=bus80.1 r1=0.0881 x1=0.0893 length=1 units=km
New Line.L_80_81 phases=1 bus1=bus80.1 bus2=bus81.1 r1=0.1007 x1=0.1021 length=1 units=km
New Line.L_79_82 phases=1 bus1=bus79.1 bus2=bus82.1 r1=0.0232 x1=0.0475 length=1 units=km
New Line.L_79_83 phases=1 bus1=bus79.1 bus2=bus83.1 r1=0.0406 x1=0.0831 length=1 units=km
New Line.L_82_84 phases=1 bus1=bus82.1 bus2=bus84.1 r1=0.0058 x1=0.0119 length=1 units=km
New Line.L_84_85 phases=1 bus1=bus84.1 bus2=bus85.1 r1=0.013 x1=0.0267 length=1 units=km
New Line.L_84_86 phases=1 bus1=bus84.1 bus2=bus86.1 r1=0.0275 x1=0.0564 length=1 units=km
New Line.L_86_87 phases=1 bus1=bus86.1 bus2=bus87.1 r1=0.0101 x1=0.0208 length=1 units=km
New Line.L_87_88 phases=1 bus1=bus87.1 bus2=bus88.1 r1=0.0145 x1=0.0297 length=1 units=km
New Line.L_87_89 phases=1 bus1=bus87.1 bus2=bus89.1 r1=0.1699 x1=0.1723 length=1 units=km
New Line.L_88_90 phases=1 bus1=bus88.1 bus2=bus90.1 r1=0.0145 x1=0.0297 length=1 units=km
New Line.L_89_91 phases=1 bus1=bus89.1 bus2=bus91.1 r1=0.1196 x1=0.1212 length=1 units=km
New Line.L_83_92 phases=1 bus1=bus83.1 bus2=bus92.1 r1=0.0261 x1=0.0534 length=1 units=km
New Line.L_92_93 phases=1 bus1=bus92.1 bus2=bus93.1 r1=0.0441 x1=0.0447 length=1 units=km
New Line.L_92_94 phases=1 bus1=bus92.1 bus2=bus94.1 r1=0.0159 x1=0.0327 length=1 units=km
New Line.L_94_95 phases=1 bus1=bus94.1 bus2=bus95.1 r1=0.0566 x1=0.0574 length=1 units=km
New Line.L_94_96 phases=1 bus1=bus94.1 bus2=bus96.1 r1=0.013 x1=0.0267 length=1 units=km
New Line.L_96_97 phases=1 bus1=bus96.1 bus2=bus97.1 r1=0.0755 x1=0.0766 length=1 units=km
New Line.L_96_98 phases=1 bus1=bus96.1 bus2=bus98.1 r1=0.013 x1=0.0267 length=1 units=km
New Line.L_98_99 phases=1 bus1=bus98.1 bus2=bus99.1 r1=0.0692 x1=0.0702 length=1 units=km
New Line.L_98_100 phases=1 bus1=bus98.1 bus2=bus100.1 r1=0.0174 x1=0.0356 length=1 units=km
New Line.L_100_101 phases=1 bus1=bus100.1 bus2=bus101.1 r1=0.0503 x1=0.051 length=1 units=km
New Line.L_74_102 phases=1 bus1=bus74.1 bus2=bus102.1 r1=0.0159 x1=0.0327 length=1 units=km
New Line.L_102_103 phases=1 bus1=bus102.1 bus2=bus103.1 r1=0.0319 x1=0.0653 length=1 units=km
New Line.L_103_104 phases=1 bus1=bus103.1 bus2=bus104.1 r1=0.0174 x1=0.0356 length=1 units=km
New Line.L_104_105 phases=1 bus1=bus104.1 bus2=bus105.1 r1=0.0464 x1=0.095 length=1 units=km
New Line.L_106_107 phases=1 bus1=bus106.1 bus2=bus107.1 r1=0.0566 x1=0.0574 length=1 units=km
New Line.L_106_108 phases=1 bus1=bus106.1 bus2=bus108.1 r1=0.0159 x1=0.0327 length=1 units=km
New Line.L_107_109 phases=1 bus1=bus107.1 bus2=bus109.1 r1=0.0818 x1=0.0829 length=1 units=km
New Line.L_109_110 phases=1 bus1=bus109.1 bus2=bus110.1 r1=0.1762 x1=0.1786 length=1 units=km
New Line.L_108_111 phases=1 bus1=bus108.1 bus2=bus111.1 r1=0.0566 x1=0.0574 length=1 units=km
New Line.L_108_112 phases=1 bus1=bus108.1 bus2=bus112.1 r1=0.0188 x1=0.0386 length=1 units=km
New Line.L_111_113 phases=1 bus1=bus111.1 bus2=bus113.1 r1=0.1448 x1=0.1467 length=1 units=km
New Line.L_112_114 phases=1 bus1=bus112.1 bus2=bus114.1 r1=0.1133 x1=0.1148 length=1 units=km
New Line.L_112_115 phases=1 bus1=bus112.1 bus2=bus115.1 r1=0.05797 x1=0.11876 length=1 units=km
New Line.L_114_116 phases=1 bus1=bus114.1 bus2=bus116.1 r1=0.0755 x1=0.0766 length=1 units=km
New Line.L_116_117 phases=1 bus1=bus116.1 bus2=bus117.1 r1=0.1448 x1=0.1467 length=1 units=km
New Line.L_116_118 phases=1 bus1=bus116.1 bus2=bus118.1 r1=0.0315 x1=0.0319 length=1 units=km
New Line.L_118_119 phases=1 bus1=bus118.1 bus2=bus119.1 r1=0.1322 x1=0.134 length=1 units=km
New Line.L_119_120 phases=1 bus1=bus119.1 bus2=bus120.1 r1=0.0818 x1=0.0829 length=1 units=km
New Line.L_121_39 phases=1 bus1=bus121.1 bus2=bus39.1 r1=0.0217 x1=0.0445 length=1 units=km
New Line.L_122_56 phases=1 bus1=bus122.1 bus2=bus56.1 r1=0.0232 x1=0.0475 length=1 units=km
New Line.L_55_123 phases=1 bus1=bus55.1 bus2=bus123.1 r1=0.029 x1=0.0594 length=1 units=km
New Line.L_124_125 phases=1 bus1=bus124.1 bus2=bus125.1 r1=1e-06 x1=1e-06 length=1 units=km
New Line.L_125_71 phases=1 bus1=bus125.1 bus2=bus71.1 r1=0.0203 x1=0.0416 length=1 units=km
New Line.L_126_106 phases=1 bus1=bus126.1 bus2=bus106.1 r1=0.0145 x1=0.0297 length=1 units=km
New Line.L_12_122 phases=1 bus1=bus12.1 bus2=bus122.1 r1=1e-06 x1=1e-06 length=1 units=km
New Line.L_16_121 phases=1 bus1=bus16.1 bus2=bus121.1 r1=1e-06 x1=1e-06 length=1 units=km
New Line.L_63_124 phases=1 bus1=bus63.1 bus2=bus124.1 r1=1e-06 x1=1e-06 length=1 units=km
New Line.L_74_126 phases=1 bus1=bus74.1 bus2=bus126.1 r1=1e-06 x1=1e-06 length=1 units=km
New Line.L_65_127 phases=1 bus1=bus65.1 bus2=bus127.1 r1=0.0001 x1=0.0001 length=1 units=km

New LoadShape.LS_1 npts=10 interval=0.000833 UseActual=Yes Pmult=(0.34117 0.34197333 0.34168333 0.34179667 0.34133 0.341223324 0.34124999500000003 0.34150333 0.34219666 0.34535667000000003)

New load.S4P bus1=4.1 phases=1 conn=wye model=1 kV=2.4018 daily=LS_1
New load.S6P bus1=6.1 phases=1 conn=wye model=1 kV=2.4018 daily=LS_1
New load.S7P bus1=7.1 phases=1 conn=wye model=1 kV=2.4018 daily=LS_1
New load.S8P bus1=8.1 phases=1 conn=wye model=1 kV=2.4018 daily=LS_1
New load.S9P bus1=9.1 phases=1 conn=wye model=1 kV=2.4018 daily=LS_1
New load.S11P bus1=11.1 phases=1 conn=wye model=1 kV=2.4018 daily=LS_1
New load.S12P bus1=12.1 phases=1 conn=wye model=1 kV=2.4018 daily=LS_1
New load.S13P bus1=13.1 phases=1 conn=wye model=1 kV=2.4018 daily=LS_1
New load.S14P bus1=14.1 phases=1 conn=wye model=1 kV=2.4018 daily=LS_1
New load.S18P bus1=18.1 phases=1 conn=wye model=1 kV=2.4018 daily=LS_1
New load.S19P bus1=19.1 phases=1 conn=wye model=1 kV=2.4018 daily=LS_1
New load.S21P bus1=21.1 phases=1 conn=wye model=1 kV=2.4018 daily=LS_1
New load.S22P bus1=22.1 phases=1 conn=wye model=1 kV=2.4018 daily=LS_1
New load.S24P bus1=24.1 phases=1 conn=wye model=1 kV=2.4018 daily=LS_1
New load.S26P bus1=26.1 phases=1 conn=wye model=1 kV=2.4018 daily=LS_1
New load.S30P bus1=30.1 phases=1 conn=wye model=1 kV=2.4018 daily=LS_1
New load.S31P bus1=31.1 phases=1 conn=wye model=1 kV=2.4018 daily=LS_1
New load.S32P bus1=32.1 phases=1 conn=wye model=1 kV=2.4018 daily=LS_1
New load.S33P bus1=33.1 phases=1 conn=wye model=1 kV=2.4018 daily=LS_1
New load.S34P bus1=34.1 phases=1 conn=wye model=1 kV=2.4018 daily=LS_1
New load.S35P bus1=35.1 phases=1 conn=wye model=1 kV=2.4018 daily=LS_1
New load.S36P bus1=36.1 phases=1 conn=wye model=1 kV=2.4018 daily=LS_1
New load.S37P bus1=37.1 phases=1 conn=wye model=1 kV=2.4018 daily=LS_1
New load.S39P bus1=39.1 phases=1 conn=wye model=1 kV=2.4018 daily=LS_1
New load.S40P bus1=40.1 phases=1 conn=wye model=1 kV=2.4018 daily=LS_1
New load.S41P bus1=41.1 phases=1 conn=wye model=1 kV=2.4018 daily=LS_1
New load.S43P bus1=43.1 phases=1 conn=wye model=1 kV=2.4018 daily=LS_1
New load.S44P bus1=44.1 phases=1 conn=wye model=1 kV=2.4018 daily=LS_1
New load.S45P bus1=45.1 phases=1 conn=wye model=1 kV=2.4018 daily=LS_1
New load.S47P bus1=47.1 phases=1 conn=wye model=1 kV=2.4018 daily=LS_1
New load.S48P bus1=48.1 phases=1 conn=wye model=1 kV=2.4018 daily=LS_1
New load.S49P bus1=49.1 phases=1 conn=wye model=1 kV=2.4018 daily=LS_1
New load.S50P bus1=50.1 phases=1 conn=wye model=1 kV=2.4018 daily=LS_1
New load.S51P bus1=51.1 phases=1 conn=wye model=1 kV=2.4018 daily=LS_1
New load.S52P bus1=52.1 phases=1 conn=wye model=1 kV=2.4018 daily=LS_1
New load.S53P bus1=53.1 phases=1 conn=wye model=1 kV=2.4018 daily=LS_1
New load.S54P bus1=54.1 phases=1 conn=wye model=1 kV=2.4018 daily=LS_1
New load.S55P bus1=55.1 phases=1 conn=wye model=1 kV=2.4018 daily=LS_1
New load.S57P bus1=57.1 phases=1 conn=wye model=1 kV=2.4018 daily=LS_1
New load.S58P bus1=58.1 phases=1 conn=wye model=1 kV=2.4018 daily=LS_1
New load.S60P bus1=60.1 phases=1 conn=wye model=1 kV=2.4018 daily=LS_1
New load.S61P bus1=61.1 phases=1 conn=wye model=1 kV=2.4018 daily=LS_1
New load.S62P bus1=62.1 phases=1 conn=wye model=1 kV=2.4018 daily=LS_1
New load.S64P bus1=64.1 phases=1 conn=wye model=1 kV=2.4018 daily=LS_1
New load.S65P bus1=65.1 phases=1 conn=wye model=1 kV=2.4018 daily=LS_1
New load.S66P bus1=66.1 phases=1 conn=wye model=1 kV=2.4018 daily=LS_1
New load.S67P bus1=67.1 phases=1 conn=wye model=1 kV=2.4018 daily=LS_1
New load.S68P bus1=68.1 phases=1 conn=wye model=1 kV=2.4018 daily=LS_1
New load.S70P bus1=70.1 phases=1 conn=wye model=1 kV=2.4018 daily=LS_1
New load.S71P bus1=71.1 phases=1 conn=wye model=1 kV=2.4018 daily=LS_1
New load.S72P bus1=72.1 phases=1 conn=wye model=1 kV=2.4018 daily=LS_1
New load.S73P bus1=73.1 phases=1 conn=wye model=1 kV=2.4018 daily=LS_1
New load.S75P bus1=75.1 phases=1 conn=wye model=1 kV=2.4018 daily=LS_1
New load.S76P bus1=76.1 phases=1 conn=wye model=1 kV=2.4018 daily=LS_1
New load.S77P bus1=77.1 phases=1 conn=wye model=1 kV=2.4018 daily=LS_1
New load.S78P bus1=78.1 phases=1 conn=wye model=1 kV=2.4018 daily=LS_1
New load.S79P bus1=79.1 phases=1 conn=wye model=1 kV=2.4018 daily=LS_1
New load.S81P bus1=81.1 phases=1 conn=wye model=1 kV=2.4018 daily=LS_1
New load.S82P bus1=82.1 phases=1 conn=wye model=1 kV=2.4018 daily=LS_1
New load.S84P bus1=84.1 phases=1 conn=wye model=1 kV=2.4018 daily=LS_1
New load.S85P bus1=85.1 phases=1 conn=wye model=1 kV=2.4018 daily=LS_1
New load.S86P bus1=86.1 phases=1 conn=wye model=1 kV=2.4018 daily=LS_1
New load.S87P bus1=87.1 phases=1 conn=wye model=1 kV=2.4018 daily=LS_1
New load.S88P bus1=88.1 phases=1 conn=wye model=1 kV=2.4018 daily=LS_1
New load.S89P bus1=89.1 phases=1 conn=wye model=1 kV=2.4018 daily=LS_1
New load.S90P bus1=90.1 phases=1 conn=wye model=1 kV=2.4018 daily=LS_1
New load.S92P bus1=92.1 phases=1 conn=wye model=1 kV=2.4018 daily=LS_1
New load.S94P bus1=94.1 phases=1 conn=wye model=1 kV=2.4018 daily=LS_1
New load.S96P bus1=96.1 phases=1 conn=wye model=1 kV=2.4018 daily=LS_1
New load.S97P bus1=97.1 phases=1 conn=wye model=1 kV=2.4018 daily=LS_1
New load.S98P bus1=98.1 phases=1 conn=wye model=1 kV=2.4018 daily=LS_1
New load.S100P bus1=100.1 phases=1 conn=wye model=1 kV=2.4018 daily=LS_1
New load.S101P bus1=101.1 phases=1 conn=wye model=1 kV=2.4018 daily=LS_1
New load.S102P bus1=102.1 phases=1 conn=wye model=1 kV=2.4018 daily=LS_1
New load.S104P bus1=104.1 phases=1 conn=wye model=1 kV=2.4018 daily=LS_1
New load.S105P bus1=105.1 phases=1 conn=wye model=1 kV=2.4018 daily=LS_1
New load.S106P bus1=106.1 phases=1 conn=wye model=1 kV=2.4018 daily=LS_1
New load.S108P bus1=108.1 phases=1 conn=wye model=1 kV=2.4018 daily=LS_1
New load.S109P bus1=109.1 phases=1 conn=wye model=1 kV=2.4018 daily=LS_1
New load.S111P bus1=111.1 phases=1 conn=wye model=1 kV=2.4018 daily=LS_1
New load.S113P bus1=113.1 phases=1 conn=wye model=1 kV=2.4018 daily=LS_1
New load.S114P bus1=114.1 phases=1 conn=wye model=1 kV=2.4018 daily=LS_1
New load.S115P bus1=115.1 phases=1 conn=wye model=1 kV=2.4018 daily=LS_1
New load.S116P bus1=116.1 phases=1 conn=wye model=1 kV=2.4018 daily=LS_1

Set mode=Daily
Set number=10
Set stepsize=3s

Solve